# pbepbe/6-31g(d,p)/auto scf=tight

H2O_with_Tv

0 1
H       7.956428029913       7.444079232721       0.351308169034
H       8.686888940596       7.413938523823       1.736433504290
O       7.819851318166       7.285582991773       1.306961803501
Tv     15.1702995299999994   0.0000000000000000   0.0000000000000000
Tv     -3.1166509764999999  14.8466991119999996   0.0000000000000000
Tv     -3.1166509764999999  -3.8388359409000001  14.3418204263000000

